data/sample_sytem.raw
0, 100.0  / PSS/E RAW format, version 33, 100 MVA base

BEGIN BUS
1, 'BUS-1', 230.00, 3, 1, 1, 1, 1.06, 0.0
2, 'BUS-2', 230.00, 3, 1, 1, 1, 1.04, -5.0
3, 'BUS-3', 230.00, 3, 1, 1, 1, 1.01, -10.0
END BUS

BEGIN LOAD
2, 1, 100.0, 30.0, 0.0, 0.0, 1, 'LOAD-BUS-2'
3, 1, 90.0, 40.0, 0.0, 0.0, 1, 'LOAD-BUS-3'
END LOAD

BEGIN BRANCH
1, 2, '1 ', 0.02, 0.06, 0.03, 9900, 9900, 9900, 0.0, 0.0, 1, 'BRANCH-1-2'
2, 3, '1 ', 0.08, 0.24, 0.025, 9900, 9900, 9900, 0.0, 0.0, 1, 'BRANCH-2-3'
END BRANCH

0 / END OF RAW DATA